electric-grid/physical/smallsignal/simplified-14gen-australia/models/lf_case02_r4_s/au14genmodel.raw
 0,    100.00, 33, 0, 0, 50.00       / September 03, 2016 23:33:28; Simulator Version 20 Beta; BuildDate 2016_7_25
LF_CASE02_R3_S 14-GEN. SIMPLIFIED MODEL OF 4-STATE SYSTEM.
NORTHFLOW AREA5->AREA3->AREA2->AREA4 500-1000-500
  101,'1_HPSGEN    ',  15.0000,3,   1,   1,   1,1.00000,   0.0000, 1.10000, 0.90000, 1.10000, 0.90000
  102,'1_HPS330    ', 330.0000,1,   1,   1,   1,1.03781,  -3.0077, 1.10000, 0.90000, 1.10000, 0.90000
  201,'2_BPSGEN    ',  20.0000,2,   2,   1,   1,1.00000,   3.0269, 1.10000, 0.90000, 1.10000, 0.90000
  202,'2_EPSGEN    ',  20.0000,2,   2,   1,   1,1.00000,  -0.9785, 1.10000, 0.90000, 1.10000, 0.90000
  203,'2_VPSGEN    ',  20.0000,2,   2,   1,   1,1.00000,  -3.9377, 1.10000, 0.90000, 1.10000, 0.90000
  204,'2_MPSGEN    ',  20.0000,2,   2,   1,   1,1.00000,  -1.5342, 1.10000, 0.90000, 1.10000, 0.90000
  205,'2_ASV330    ', 330.0000,2,   2,   1,   1,1.05500, -20.6356, 1.10000, 0.90000, 1.10000, 0.90000
  206,'2_BPS330    ', 330.0000,1,   2,   1,   1,1.05385,  -3.9165, 1.10000, 0.90000, 1.10000, 0.90000
  207,'2_N__330    ', 330.0000,1,   2,   1,   1,1.03511, -11.0159, 1.10000, 0.90000, 1.10000, 0.90000
  208,'2_VPS330    ', 330.0000,1,   2,   1,   1,1.03929, -11.1526, 1.10000, 0.90000, 1.10000, 0.90000
  209,'2_EPS330    ', 330.0000,1,   2,   1,   1,1.04668,  -8.1704, 1.10000, 0.90000, 1.10000, 0.90000
  210,'2_EPS500    ', 500.0000,1,   2,   1,   1,1.06462, -10.2595, 1.10000, 0.90000, 1.10000, 0.90000
  211,'2_SN_330    ', 330.0000,1,   2,   1,   1,1.02708, -16.4443, 1.10000, 0.90000, 1.10000, 0.90000
  212,'2_SW_330    ', 330.0000,1,   2,   1,   1,1.02837, -16.3865, 1.10000, 0.90000, 1.10000, 0.90000
  213,'2_K__500    ', 500.0000,1,   2,   1,   1,1.05941, -12.4704, 1.10000, 0.90000, 1.10000, 0.90000
  214,'2_K__330    ', 330.0000,1,   2,   1,   1,1.04754, -14.5834, 1.10000, 0.90000, 1.10000, 0.90000
  215,'2_MPS330    ', 330.0000,1,   2,   1,   1,1.05476,  -6.4339, 1.10000, 0.90000, 1.10000, 0.90000
  216,'2_SS_330    ', 330.0000,1,   2,   1,   1,1.03880, -16.4136, 1.10000, 0.90000, 1.10000, 0.90000
  217,'2_YC_330    ', 330.0000,1,   2,   1,   1,1.04002, -12.5049, 1.10000, 0.90000, 1.10000, 0.90000
  301,'3_LPSGEN    ',  20.0000,2,   3,   1,   1,1.00000,  48.7923, 1.10000, 0.90000, 1.10000, 0.90000
  302,'3_YPSGEN    ',  20.0000,2,   3,   1,   1,1.00000,  42.0736, 1.10000, 0.90000, 1.10000, 0.90000
  303,'3_LPS500    ', 500.0000,1,   3,   1,   1,1.04659,  41.5899, 1.10000, 0.90000, 1.10000, 0.90000
  304,'3_R__500    ', 500.0000,1,   3,   1,   1,1.01329,  29.9664, 1.10000, 0.90000, 1.10000, 0.90000
  305,'3_SM_500    ', 500.0000,1,   3,   1,   1,1.02018,  28.1643, 1.10000, 0.90000, 1.10000, 0.90000
  306,'3_K__500    ', 500.0000,1,   3,   1,   1,1.02076,  26.6072, 1.10000, 0.90000, 1.10000, 0.90000
  307,'3_M__500    ', 500.0000,1,   3,   1,   1,1.02335,  26.7894, 1.10000, 0.90000, 1.10000, 0.90000
  308,'3_H__500    ', 500.0000,1,   3,   1,   1,1.03427,  25.3799, 1.10000, 0.90000, 1.10000, 0.90000
  309,'3_D__330    ', 330.0000,1,   3,   1,   1,1.00781,   5.5583, 1.10000, 0.90000, 1.10000, 0.90000
  310,'3_SS_330    ', 330.0000,1,   3,   1,   1,1.02215,  31.6054, 1.10000, 0.90000, 1.10000, 0.90000
  311,'3_SM_330    ', 330.0000,1,   3,   1,   1,1.03108,  19.6983, 1.10000, 0.90000, 1.10000, 0.90000
  312,'3_YPS220    ', 220.0000,1,   3,   1,   1,1.03697,  35.2452, 1.10000, 0.90000, 1.10000, 0.90000
  313,'3_RSV220    ', 220.0000,2,   3,   1,   1,1.01500,  23.7109, 1.10000, 0.90000, 1.10000, 0.90000
  314,'3_SM_220    ', 220.0000,1,   3,   1,   1,1.01694,  24.5334, 1.10000, 0.90000, 1.10000, 0.90000
  315,'3_H__275    ', 275.0000,1,   3,   1,   1,1.05165,  28.7996, 1.10000, 0.90000, 1.10000, 0.90000
  401,'4_TPSGEN    ',  20.0000,2,   4,   1,   1,1.00000, -35.7196, 1.10000, 0.90000, 1.10000, 0.90000
  402,'4_CPSGEN    ',  20.0000,2,   4,   1,   1,1.00000, -12.9080, 1.10000, 0.90000, 1.10000, 0.90000
  403,'4_SPSGEN    ',  20.0000,2,   4,   1,   1,1.00000, -11.5368, 1.10000, 0.90000, 1.10000, 0.90000
  404,'4_GPSGEN    ',  20.0000,2,   4,   1,   1,1.00000, -18.6858, 1.10000, 0.90000, 1.10000, 0.90000
  405,'4_GPS275    ', 275.0000,1,   4,   1,   1,1.03744, -25.2456, 1.10000, 0.90000, 1.10000, 0.90000
  406,'4_N__275    ', 275.0000,1,   4,   1,   1,1.03542, -20.3523, 1.10000, 0.90000, 1.10000, 0.90000
  407,'4_SPS275    ', 275.0000,1,   4,   1,   1,1.04091, -17.7507, 1.10000, 0.90000, 1.10000, 0.90000
  408,'4_CPS275    ', 275.0000,1,   4,   1,   1,1.04428, -20.6601, 1.10000, 0.90000, 1.10000, 0.90000
  409,'4_W__275    ', 275.0000,1,   4,   1,   1,1.01633, -43.0626, 1.10000, 0.90000, 1.10000, 0.90000
  410,'4_TPS275    ', 275.0000,1,   4,   1,   1,1.03396, -41.8871, 1.10000, 0.90000, 1.10000, 0.90000
  411,'4_SP_275    ', 275.0000,1,   4,   1,   1,0.99979, -52.1675, 1.10000, 0.90000, 1.10000, 0.90000
  412,'4_BW_275    ', 275.0000,2,   4,   1,   1,1.00000, -52.5754, 1.10000, 0.90000, 1.10000, 0.90000
  413,'4_BR_275    ', 275.0000,1,   4,   1,   1,1.04789, -35.7458, 1.10000, 0.90000, 1.10000, 0.90000
  414,'4_BR_330    ', 330.0000,1,   4,   1,   1,1.04801, -35.0878, 1.10000, 0.90000, 1.10000, 0.90000
  415,'4_BU_330    ', 330.0000,1,   4,   1,   1,1.05375, -32.0175, 1.10000, 0.90000, 1.10000, 0.90000
  416,'4_DU_330    ', 330.0000,1,   4,   1,   1,1.05966, -26.3692, 1.10000, 0.90000, 1.10000, 0.90000
  501,'5_NPSGEN    ',  20.0000,2,   5,   1,   1,1.00000,  86.3210, 1.10000, 0.90000, 1.10000, 0.90000
  502,'5_TPSGEN    ',  15.0000,2,   5,   1,   1,1.00000,  84.8444, 1.10000, 0.90000, 1.10000, 0.90000
  503,'5_PPSGEN    ',  15.0000,2,   5,   1,   1,1.00000,  84.9975, 1.10000, 0.90000, 1.10000, 0.90000
  504,'5_D__275    ', 275.0000,1,   5,   1,   1,1.06428,  78.4516, 1.10000, 0.90000, 1.10000, 0.90000
  505,'5_TPS275    ', 275.0000,1,   5,   1,   1,1.05047,  78.3376, 1.10000, 0.90000, 1.10000, 0.90000
  506,'5_PPS275    ', 275.0000,1,   5,   1,   1,1.04886,  77.9691, 1.10000, 0.90000, 1.10000, 0.90000
  507,'5_PSV275    ', 275.0000,2,   5,   1,   1,1.04000,  75.4814, 1.10000, 0.90000, 1.10000, 0.90000
  508,'5_CG_275    ', 275.0000,1,   5,   1,   1,1.03542,  76.1609, 1.10000, 0.90000, 1.10000, 0.90000
  509,'5_SSV275    ', 275.0000,2,   5,   1,   1,1.02700,  35.8398, 1.10000, 0.90000, 1.10000, 0.90000
0 / END OF BUS DATA, BEGIN LOAD DATA
  102,'1 ',1,   1,   1,   380.000,    38.000,     0.000,     0.000,     0.000,     0.000,   1,1
  205,'1 ',1,   2,   1,   330.000,    33.000,     0.000,     0.000,     0.000,     0.000,   1,1
  206,'1 ',1,   2,   1,   110.000,    11.000,     0.000,     0.000,     0.000,     0.000,   1,1
  207,'1 ',1,   2,   1,  1600.000,   160.000,     0.000,     0.000,     0.000,     0.000,   1,1
  208,'1 ',1,   2,   1,   180.000,    18.000,     0.000,     0.000,     0.000,     0.000,   1,1
  211,'1 ',1,   2,   1,  1445.000,   145.000,     0.000,     0.000,     0.000,     0.000,   1,1
  212,'1 ',1,   2,   1,  1410.000,   140.000,     0.000,     0.000,     0.000,     0.000,   1,1
  215,'1 ',1,   2,   1,   410.000,    40.000,     0.000,     0.000,     0.000,     0.000,   1,1
  216,'1 ',1,   2,   1,  1565.000,   155.000,     0.000,     0.000,     0.000,     0.000,   1,1
  217,'1 ',1,   2,   1,  1070.000,   110.000,     0.000,     0.000,     0.000,     0.000,   1,1
  306,'1 ',1,   3,   1,  1230.000,   123.000,     0.000,     0.000,     0.000,     0.000,   1,1
  307,'1 ',1,   3,   1,   650.000,    65.000,     0.000,     0.000,     0.000,     0.000,   1,1
  308,'1 ',1,   3,   1,   655.000,    66.000,     0.000,     0.000,     0.000,     0.000,   1,1
  309,'1 ',1,   3,   1,   195.000,    20.000,     0.000,     0.000,     0.000,     0.000,   1,1
  312,'1 ',1,   3,   1,   115.000,    12.000,     0.000,     0.000,     0.000,     0.000,   1,1
  313,'1 ',1,   3,   1,  2405.000,   240.000,     0.000,     0.000,     0.000,     0.000,   1,1
  314,'1 ',1,   3,   1,   250.000,    25.000,     0.000,     0.000,     0.000,     0.000,   1,1
  405,'1 ',1,   4,   1,  1215.000,   120.000,     0.000,     0.000,     0.000,     0.000,   1,1
  406,'1 ',1,   4,   1,   905.000,    90.000,     0.000,     0.000,     0.000,     0.000,   1,1
  407,'1 ',1,   4,   1,     0.000,     0.000,     0.000,     0.000,     0.000,     0.000,   1,1
  408,'1 ',1,   4,   1,   185.000,    20.000,     0.000,     0.000,     0.000,     0.000,   1,1
  409,'1 ',1,   4,   1,   310.000,    30.000,     0.000,     0.000,     0.000,     0.000,   1,1
  410,'1 ',1,   4,   1,   650.000,    65.000,     0.000,     0.000,     0.000,     0.000,   1,1
  411,'1 ',1,   4,   1,   700.000,    70.000,     0.000,     0.000,     0.000,     0.000,   1,1
  412,'1 ',1,   4,   1,  1535.000,   155.000,     0.000,     0.000,     0.000,     0.000,   1,1
  504,'1 ',1,   5,   1,   200.000,    40.000,     0.000,     0.000,     0.000,     0.000,   1,1
  507,'1 ',1,   5,   1,   710.000,   140.000,     0.000,     0.000,     0.000,     0.000,   1,1
  508,'1 ',1,   5,   1,   520.000,   105.000,     0.000,     0.000,     0.000,     0.000,   1,1
  509,'1 ',1,   5,   1,    70.000,    15.000,     0.000,     0.000,     0.000,     0.000,   1,1
0 / END OF LOAD DATA, BEGIN FIXED SHUNT DATA
   212,' 1', 1,     0.000,   150.000
   216,' 1', 1,     0.000,   150.000
   409,' 1', 1,     0.000,    60.000
   411,' 1', 1,     0.000,    30.000
   414,' 1', 1,     0.000,   -30.000
   415,' 1', 1,     0.000,   -60.000
   416,' 1', 1,     0.000,   -60.000
   504,' 1', 1,     0.000,   -90.000
0 / END OF FIXED SHUNT DATA, BEGIN GENERATOR DATA
  101,'1 ',   478.732,   163.339,   435.846,  -435.846,1.00000,    0,   999.900,   0.00000,   0.25000,   0.00000,   0.00000,1.00000,1,  100.0,   900.000,     0.000,   1,1.0000,   0,1.0000,   0,1.0000,   0,1.0000,0, 1.0000
  201,'1 ',  2800.000,   194.355,  1453.040, -1453.040,1.00000,    0,  3333.500,   0.00000,   0.21000,   0.00000,   0.00000,1.00000,1,  100.0,  3000.000,     0.000,   1,1.0000,   0,1.0000,   0,1.0000,   0,1.0000,0, 1.0000
  202,'1 ',  1920.000,   241.977,   968.720,  -968.720,1.00000,    0,  2222.400,   0.00000,   0.20000,   0.00000,   0.00000,1.00000,1,  100.0,  2000.000,     0.000,   1,1.0000,   0,1.0000,   0,1.0000,   0,1.0000,0, 1.0000
  203,'1 ',  1350.000,   247.237,   726.540,  -726.540,1.00000,    0,  1666.800,   0.00000,   0.25000,   0.00000,   0.00000,1.00000,1,  100.0,  1500.000,     0.000,   1,1.0000,   0,1.0000,   0,1.0000,   0,1.0000,0, 1.0000
  204,'1 ',  1584.000,    71.306,  1162.432, -1162.432,1.00000,    0,  2666.800,   0.00000,   0.21000,   0.00000,   0.00000,1.00000,1,  100.0,  2400.000,     0.000,   1,1.0000,   0,1.0000,   0,1.0000,   0,1.0000,0, 1.0000
  205,'1 ',     0.000,    41.804,   430.000,  -220.000,1.05500,    0,   650.000,   0.00000, 999.00000,   0.00000,   0.00000,1.00000,1,  100.0,     0.000,     0.000,   1,1.0000,   0,1.0000,   0,1.0000,   0,1.0000,0, 1.0000
  301,'1 ',  4680.000,  1128.597,  2324.864, -2324.864,1.00000,    0,  5333.600,   0.00000,   0.25000,   0.00000,   0.00000,1.00000,1,  100.0,  4800.000,     0.000,   1,1.0000,   0,1.0000,   0,1.0000,   0,1.0000,0, 1.0000
  302,'1 ',  1532.000,   253.051,   774.836,  -774.836,1.00000,    0,  1777.600,   0.00000,   0.20000,   0.00000,   0.00000,1.00000,1,  100.0,  1600.000,     0.000,   1,1.0000,   0,1.0000,   0,1.0000,   0,1.0000,0, 1.0000
  313,'1 ',     0.000,   129.430,   600.000,  -200.000,1.01500,    0,   800.000,   0.00000, 999.00000,   0.00000,   0.00000,1.00000,1,  100.0,     0.000,     0.000,   1,1.0000,   0,1.0000,   0,1.0000,   0,1.0000,0, 1.0000
  401,'1 ',  1400.000,   466.077,   774.836,  -774.836,1.00000,    0,  1777.600,   0.00000,   0.25000,   0.00000,   0.00000,1.00000,1,  100.0,  1600.000,     0.000,   1,1.0000,   0,1.0000,   0,1.0000,   0,1.0000,0, 1.0000
  402,'1 ',   870.000,    94.140,   435.846,  -435.846,1.00000,    0,   999.900,   0.00000,   0.26000,   0.00000,   0.00000,1.00000,1,  100.0,   900.000,     0.000,   1,1.0000,   0,1.0000,   0,1.0000,   0,1.0000,0, 1.0000
  403,'1 ',  1400.000,   188.642,   774.836,  -774.836,1.00000,    0,  1777.600,   0.00000,   0.25000,   0.00000,   0.00000,1.00000,1,  100.0,  1600.000,     0.000,   1,1.0000,   0,1.0000,   0,1.0000,   0,1.0000,0, 1.0000
  404,'1 ',  1464.000,   238.731,   871.692,  -871.692,1.00000,    0,  1999.800,   0.00000,   0.24000,   0.00000,   0.00000,1.00000,1,  100.0,  1800.000,     0.000,   1,1.0000,   0,1.0000,   0,1.0000,   0,1.0000,0, 1.0000
  412,'1 ',     0.000,    63.881,  1100.000,  -330.000,1.00000,    0,  1430.000,   0.00000, 999.00000,   0.00000,   0.00000,1.00000,1,  100.0,     0.000,     0.000,   1,1.0000,   0,1.0000,   0,1.0000,   0,1.0000,0, 1.0000
  501,'1 ',   600.000,   -17.628,   290.564,  -290.564,1.00000,    0,   666.600,   0.00000,   0.24000,   0.00000,   0.00000,1.00000,1,  100.0,   600.000,     0.000,   1,1.0000,   0,1.0000,   0,1.0000,   0,1.0000,0, 1.0000
  502,'1 ',   800.000,   212.136,   600.000,  -600.000,1.00000,    0,  1000.000,   0.00000,   0.22000,   0.00000,   0.00000,1.00000,1,  100.0,   800.000,     0.000,   1,1.0000,   0,1.0000,   0,1.0000,   0,1.0000,0, 1.0000
  503,'1 ',   690.000,   184.348,   363.315,  -363.315,1.00000,    0,   833.500,   0.00000,   0.17000,   0.00000,   0.00000,1.00000,1,  100.0,   750.000,     0.000,   1,1.0000,   0,1.0000,   0,1.0000,   0,1.0000,0, 1.0000
  507,'1 ',     0.000,    36.827,   320.000,  -180.000,1.04000,    0,   500.000,   0.00000, 999.00000,   0.00000,   0.00000,1.00000,1,  100.0,     0.000,     0.000,   1,1.0000,   0,1.0000,   0,1.0000,   0,1.0000,0, 1.0000
  509,'1 ',     0.000,    50.176,   400.000,  -150.000,1.02700,    0,   550.000,   0.00000, 999.00000,   0.00000,   0.00000,1.00000,1,  100.0,     0.000,     0.000,   1,1.0000,   0,1.0000,   0,1.0000,   0,1.0000,0, 1.0000
0 / END OF GENERATOR DATA, BEGIN BRANCH DATA
  102,   217,'1 ', 0.00840, 0.06670,0.81700,   0.00,   0.00,   0.00,  0.00000,  0.00000,  0.00000,  0.00000,1,1,   0.0,   1,1.0000,   0,1.0000,   0,1.0000,   0,1.0000
  102,   217,'2 ', 0.00840, 0.06670,0.81700,   0.00,   0.00,   0.00,  0.00000,  0.00000,  0.00000,  0.00000,1,1,   0.0,   1,1.0000,   0,1.0000,   0,1.0000,   0,1.0000
  102,   217,'3 ', 0.00780, 0.06200,0.76000,   0.00,   0.00,   0.00,  0.00000,  0.00000,  0.00000,  0.00000,1,1,   0.0,   1,1.0000,   0,1.0000,   0,1.0000,   0,1.0000
  102,   217,'4 ', 0.00780, 0.06200,0.76000,   0.00,   0.00,   0.00,  0.00000,  0.00000,  0.00000,  0.00000,1,1,   0.0,   1,1.0000,   0,1.0000,   0,1.0000,   0,1.0000
  102,   309,'1 ', 0.00450, 0.03560,0.43700,   0.00,   0.00,   0.00,  0.00000,  0.00000,  0.00000,  0.00000,1,1,   0.0,   1,1.0000,   0,1.0000,   0,1.0000,   0,1.0000
  102,   309,'2 ', 0.00450, 0.03560,0.43700,   0.00,   0.00,   0.00,  0.00000,  0.00000,  0.00000,  0.00000,1,1,   0.0,   1,1.0000,   0,1.0000,   0,1.0000,   0,1.0000
  102,   309,'3 ', 0.01090, 0.08680,0.76000,   0.00,   0.00,   0.00,  0.00000,  0.00000,  0.00000,  0.00000,1,1,   0.0,   1,1.0000,   0,1.0000,   0,1.0000,   0,1.0000
  205,   206,'1 ', 0.00960, 0.07600,0.93100,   0.00,   0.00,   0.00,  0.00000,  0.00000,  0.00000,  0.00000,1,1,   0.0,   1,1.0000,   0,1.0000,   0,1.0000,   0,1.0000
  205,   206,'2 ', 0.00960, 0.07600,0.93100,   0.00,   0.00,   0.00,  0.00000,  0.00000,  0.00000,  0.00000,1,1,   0.0,   1,1.0000,   0,1.0000,   0,1.0000,   0,1.0000
  205,   416,'1 ', 0.00370, 0.04600,0.73000,   0.00,   0.00,   0.00,  0.00000,  0.00000,  0.00000,  0.00000,1,1,   0.0,   1,1.0000,   0,1.0000,   0,1.0000,   0,1.0000
  205,   416,'2 ', 0.00370, 0.04600,0.73000,   0.00,   0.00,   0.00,  0.00000,  0.00000,  0.00000,  0.00000,1,1,   0.0,   1,1.0000,   0,1.0000,   0,1.0000,   0,1.0000
  206,   207,'1 ', 0.00450, 0.03560,0.43700,   0.00,   0.00,   0.00,  0.00000,  0.00000,  0.00000,  0.00000,1,1,   0.0,   1,1.0000,   0,1.0000,   0,1.0000,   0,1.0000
  206,   207,'2 ', 0.00450, 0.03560,0.43700,   0.00,   0.00,   0.00,  0.00000,  0.00000,  0.00000,  0.00000,1,1,   0.0,   1,1.0000,   0,1.0000,   0,1.0000,   0,1.0000
  206,   212,'1 ', 0.00660, 0.05270,0.64600,   0.00,   0.00,   0.00,  0.00000,  0.00000,  0.00000,  0.00000,1,1,   0.0,   1,1.0000,   0,1.0000,   0,1.0000,   0,1.0000
  206,   212,'2 ', 0.00660, 0.05270,0.64600,   0.00,   0.00,   0.00,  0.00000,  0.00000,  0.00000,  0.00000,1,1,   0.0,   1,1.0000,   0,1.0000,   0,1.0000,   0,1.0000
  206,   215,'1 ', 0.00660, 0.05270,0.64600,   0.00,   0.00,   0.00,  0.00000,  0.00000,  0.00000,  0.00000,1,1,   0.0,   1,1.0000,   0,1.0000,   0,1.0000,   0,1.0000
  206,   215,'2 ', 0.00660, 0.05270,0.64600,   0.00,   0.00,   0.00,  0.00000,  0.00000,  0.00000,  0.00000,1,1,   0.0,   1,1.0000,   0,1.0000,   0,1.0000,   0,1.0000
  207,   208,'1 ', 0.00180, 0.01400,0.17100,   0.00,   0.00,   0.00,  0.00000,  0.00000,  0.00000,  0.00000,1,1,   0.0,   1,1.0000,   0,1.0000,   0,1.0000,   0,1.0000
  207,   208,'2 ', 0.00180, 0.01400,0.17100,   0.00,   0.00,   0.00,  0.00000,  0.00000,  0.00000,  0.00000,1,1,   0.0,   1,1.0000,   0,1.0000,   0,1.0000,   0,1.0000
  207,   209,'1 ', 0.00080, 0.00620,0.07600,   0.00,   0.00,   0.00,  0.00000,  0.00000,  0.00000,  0.00000,1,1,   0.0,   1,1.0000,   0,1.0000,   0,1.0000,   0,1.0000
  208,   211,'1 ', 0.00310, 0.02480,0.30400,   0.00,   0.00,   0.00,  0.00000,  0.00000,  0.00000,  0.00000,1,1,   0.0,   1,1.0000,   0,1.0000,   0,1.0000,   0,1.0000
  208,   211,'2 ', 0.00310, 0.02480,0.30400,   0.00,   0.00,   0.00,  0.00000,  0.00000,  0.00000,  0.00000,1,1,   0.0,   1,1.0000,   0,1.0000,   0,1.0000,   0,1.0000
  208,   211,'3 ', 0.00310, 0.02480,0.30400,   0.00,   0.00,   0.00,  0.00000,  0.00000,  0.00000,  0.00000,1,1,   0.0,   1,1.0000,   0,1.0000,   0,1.0000,   0,1.0000
  209,   212,'1 ', 0.00450, 0.03560,0.43700,   0.00,   0.00,   0.00,  0.00000,  0.00000,  0.00000,  0.00000,1,1,   0.0,   1,1.0000,   0,1.0000,   0,1.0000,   0,1.0000
  210,   213,'1 ', 0.00100, 0.01450,1.54000,   0.00,   0.00,   0.00,  0.00000,  0.00000,  0.00000,  0.00000,1,1,   0.0,   1,1.0000,   0,1.0000,   0,1.0000,   0,1.0000
  210,   213,'2 ', 0.00100, 0.01450,1.54000,   0.00,   0.00,   0.00,  0.00000,  0.00000,  0.00000,  0.00000,1,1,   0.0,   1,1.0000,   0,1.0000,   0,1.0000,   0,1.0000
  211,   212,'1 ', 0.00140, 0.01080,0.13300,   0.00,   0.00,   0.00,  0.00000,  0.00000,  0.00000,  0.00000,1,1,   0.0,   1,1.0000,   0,1.0000,   0,1.0000,   0,1.0000
  211,   212,'2 ', 0.00140, 0.01080,0.13300,   0.00,   0.00,   0.00,  0.00000,  0.00000,  0.00000,  0.00000,1,1,   0.0,   1,1.0000,   0,1.0000,   0,1.0000,   0,1.0000
  211,   214,'1 ', 0.00190, 0.01550,0.19000,   0.00,   0.00,   0.00,  0.00000,  0.00000,  0.00000,  0.00000,1,1,   0.0,   1,1.0000,   0,1.0000,   0,1.0000,   0,1.0000
  212,   217,'1 ', 0.00700, 0.05580,0.68400,   0.00,   0.00,   0.00,  0.00000,  0.00000,  0.00000,  0.00000,1,1,   0.0,   1,1.0000,   0,1.0000,   0,1.0000,   0,1.0000
  214,   216,'1 ', 0.00100, 0.00770,0.09500,   0.00,   0.00,   0.00,  0.00000,  0.00000,  0.00000,  0.00000,1,1,   0.0,   1,1.0000,   0,1.0000,   0,1.0000,   0,1.0000
  214,   217,'1 ', 0.00490, 0.03880,0.47500,   0.00,   0.00,   0.00,  0.00000,  0.00000,  0.00000,  0.00000,1,1,   0.0,   1,1.0000,   0,1.0000,   0,1.0000,   0,1.0000
  215,   216,'1 ', 0.00510, 0.04030,0.49400,   0.00,   0.00,   0.00,  0.00000,  0.00000,  0.00000,  0.00000,1,1,   0.0,   1,1.0000,   0,1.0000,   0,1.0000,   0,1.0000
  215,   216,'2 ', 0.00510, 0.04030,0.49400,   0.00,   0.00,   0.00,  0.00000,  0.00000,  0.00000,  0.00000,1,1,   0.0,   1,1.0000,   0,1.0000,   0,1.0000,   0,1.0000
  215,   217,'1 ', 0.00720, 0.05740,0.70300,   0.00,   0.00,   0.00,  0.00000,  0.00000,  0.00000,  0.00000,1,1,   0.0,   1,1.0000,   0,1.0000,   0,1.0000,   0,1.0000
  215,   217,'2 ', 0.00720, 0.05740,0.70300,   0.00,   0.00,   0.00,  0.00000,  0.00000,  0.00000,  0.00000,1,1,   0.0,   1,1.0000,   0,1.0000,   0,1.0000,   0,1.0000
  216,   217,'1 ', 0.00510, 0.04030,0.49400,   0.00,   0.00,   0.00,  0.00000,  0.00000,  0.00000,  0.00000,1,1,   0.0,   1,1.0000,   0,1.0000,   0,1.0000,   0,1.0000
  303,   304,'1 ', 0.00200, 0.02800,0.74000,   0.00,   0.00,   0.00,  0.00000,  0.00000,  0.00000,  0.00000,1,1,   0.0,   1,1.0000,   0,1.0000,   0,1.0000,   0,1.0000
  303,   304,'2 ', 0.00200, 0.02800,0.74000,   0.00,   0.00,   0.00,  0.00000,  0.00000,  0.00000,  0.00000,1,1,   0.0,   1,1.0000,   0,1.0000,   0,1.0000,   0,1.0000
  303,   305,'1 ', 0.00110, 0.01600,1.70000,   0.00,   0.00,   0.00,  0.00000,  0.00000,  0.00000,  0.00000,1,1,   0.0,   1,1.0000,   0,1.0000,   0,1.0000,   0,1.0000
  303,   305,'2 ', 0.00110, 0.01600,1.70000,   0.00,   0.00,   0.00,  0.00000,  0.00000,  0.00000,  0.00000,1,1,   0.0,   1,1.0000,   0,1.0000,   0,1.0000,   0,1.0000
  304,   305,'1 ', 0.00030, 0.00400,0.42400,   0.00,   0.00,   0.00,  0.00000,  0.00000,  0.00000,  0.00000,1,1,   0.0,   1,1.0000,   0,1.0000,   0,1.0000,   0,1.0000
  305,   306,'1 ', 0.00020, 0.00300,0.32000,   0.00,   0.00,   0.00,  0.00000,  0.00000,  0.00000,  0.00000,1,1,   0.0,   1,1.0000,   0,1.0000,   0,1.0000,   0,1.0000
  305,   307,'1 ', 0.00030, 0.00450,0.44700,   0.00,   0.00,   0.00,  0.00000,  0.00000,  0.00000,  0.00000,1,1,   0.0,   1,1.0000,   0,1.0000,   0,1.0000,   0,1.0000
  305,   307,'2 ', 0.00030, 0.00450,0.44700,   0.00,   0.00,   0.00,  0.00000,  0.00000,  0.00000,  0.00000,1,1,   0.0,   1,1.0000,   0,1.0000,   0,1.0000,   0,1.0000
  306,   307,'1 ', 0.00010, 0.00120,0.12700,   0.00,   0.00,   0.00,  0.00000,  0.00000,  0.00000,  0.00000,1,1,   0.0,   1,1.0000,   0,1.0000,   0,1.0000,   0,1.0000
  307,   308,'1 ', 0.00230, 0.03250,3.44500,   0.00,   0.00,   0.00,  0.00000,  0.00000,  0.00000,  0.00000,1,1,   0.0,   1,1.0000,   0,1.0000,   0,1.0000,   0,1.0000
  307,   308,'2 ', 0.00230, 0.03250,3.44500,   0.00,   0.00,   0.00,  0.00000,  0.00000,  0.00000,  0.00000,1,1,   0.0,   1,1.0000,   0,1.0000,   0,1.0000,   0,1.0000
  309,   310,'1 ', 0.01350, 0.10695,0.58267,   0.00,   0.00,   0.00,  0.00000,  0.00000,  0.00000,  0.00000,1,1,   0.0,   1,1.0000,   0,1.0000,   0,1.0000,   0,1.0000
  309,   310,'2 ', 0.01350, 0.10695,0.58267,   0.00,   0.00,   0.00,  0.00000,  0.00000,  0.00000,  0.00000,1,1,   0.0,   1,1.0000,   0,1.0000,   0,1.0000,   0,1.0000
  309,   310,'3 ', 0.01350, 0.10695,0.58267,   0.00,   0.00,   0.00,  0.00000,  0.00000,  0.00000,  0.00000,1,1,   0.0,   1,1.0000,   0,1.0000,   0,1.0000,   0,1.0000
  310,   311,'1 ', 0.00000,-0.03370,0.00000,   0.00,   0.00,   0.00,  0.00000,  0.00000,  0.00000,  0.00000,1,1,   0.0,   1,1.0000,   0,1.0000,   0,1.0000,   0,1.0000
  310,   311,'2 ', 0.00000,-0.03370,0.00000,   0.00,   0.00,   0.00,  0.00000,  0.00000,  0.00000,  0.00000,1,1,   0.0,   1,1.0000,   0,1.0000,   0,1.0000,   0,1.0000
  312,   313,'1 ', 0.00600, 0.04500,0.30000,   0.00,   0.00,   0.00,  0.00000,  0.00000,  0.00000,  0.00000,1,1,   0.0,   1,1.0000,   0,1.0000,   0,1.0000,   0,1.0000
  312,   313,'2 ', 0.00600, 0.04500,0.30000,   0.00,   0.00,   0.00,  0.00000,  0.00000,  0.00000,  0.00000,1,1,   0.0,   1,1.0000,   0,1.0000,   0,1.0000,   0,1.0000
  312,   313,'3 ', 0.00600, 0.04500,0.30000,   0.00,   0.00,   0.00,  0.00000,  0.00000,  0.00000,  0.00000,1,1,   0.0,   1,1.0000,   0,1.0000,   0,1.0000,   0,1.0000
  313,   314,'1 ', 0.00100, 0.01000,0.26000,   0.00,   0.00,   0.00,  0.00000,  0.00000,  0.00000,  0.00000,1,1,   0.0,   1,1.0000,   0,1.0000,   0,1.0000,   0,1.0000
  313,   314,'2 ', 0.00100, 0.01000,0.26000,   0.00,   0.00,   0.00,  0.00000,  0.00000,  0.00000,  0.00000,1,1,   0.0,   1,1.0000,   0,1.0000,   0,1.0000,   0,1.0000
  315,   509,'1 ', 0.00700, 0.05000,0.19000,   0.00,   0.00,   0.00,  0.00000,  0.00000,  0.00000,  0.00000,1,1,   0.0,   1,1.0000,   0,1.0000,   0,1.0000,   0,1.0000
  315,   509,'2 ', 0.00700, 0.05000,0.19000,   0.00,   0.00,   0.00,  0.00000,  0.00000,  0.00000,  0.00000,1,1,   0.0,   1,1.0000,   0,1.0000,   0,1.0000,   0,1.0000
  405,   406,'1 ', 0.00390, 0.04750,0.38100,   0.00,   0.00,   0.00,  0.00000,  0.00000,  0.00000,  0.00000,1,1,   0.0,   1,1.0000,   0,1.0000,   0,1.0000,   0,1.0000
  405,   406,'2 ', 0.00390, 0.04750,0.38100,   0.00,   0.00,   0.00,  0.00000,  0.00000,  0.00000,  0.00000,1,1,   0.0,   1,1.0000,   0,1.0000,   0,1.0000,   0,1.0000
  405,   408,'1 ', 0.00540, 0.05000,0.18900,   0.00,   0.00,   0.00,  0.00000,  0.00000,  0.00000,  0.00000,1,1,   0.0,   1,1.0000,   0,1.0000,   0,1.0000,   0,1.0000
  405,   409,'1 ', 0.01800, 0.12200,0.79000,   0.00,   0.00,   0.00,  0.00000,  0.00000,  0.00000,  0.00000,1,1,   0.0,   1,1.0000,   0,1.0000,   0,1.0000,   0,1.0000
  405,   409,'2 ', 0.01800, 0.12200,0.79000,   0.00,   0.00,   0.00,  0.00000,  0.00000,  0.00000,  0.00000,1,1,   0.0,   1,1.0000,   0,1.0000,   0,1.0000,   0,1.0000
  405,   409,'3 ', 0.01800, 0.12200,0.79000,   0.00,   0.00,   0.00,  0.00000,  0.00000,  0.00000,  0.00000,1,1,   0.0,   1,1.0000,   0,1.0000,   0,1.0000,   0,1.0000
  406,   407,'1 ', 0.00060, 0.00760,0.06200,   0.00,   0.00,   0.00,  0.00000,  0.00000,  0.00000,  0.00000,1,1,   0.0,   1,1.0000,   0,1.0000,   0,1.0000,   0,1.0000
  406,   407,'2 ', 0.00060, 0.00760,0.06200,   0.00,   0.00,   0.00,  0.00000,  0.00000,  0.00000,  0.00000,1,1,   0.0,   1,1.0000,   0,1.0000,   0,1.0000,   0,1.0000
  407,   408,'1 ', 0.00420, 0.05130,0.41200,   0.00,   0.00,   0.00,  0.00000,  0.00000,  0.00000,  0.00000,1,1,   0.0,   1,1.0000,   0,1.0000,   0,1.0000,   0,1.0000
  408,   410,'1 ', 0.01650, 0.19200,0.67333,   0.00,   0.00,   0.00,  0.00000,  0.00000,  0.00000,  0.00000,1,1,   0.0,   1,1.0000,   0,1.0000,   0,1.0000,   0,1.0000
  408,   410,'2 ', 0.01650, 0.19200,0.67333,   0.00,   0.00,   0.00,  0.00000,  0.00000,  0.00000,  0.00000,1,1,   0.0,   1,1.0000,   0,1.0000,   0,1.0000,   0,1.0000
  408,   410,'3 ', 0.01650, 0.19200,0.67333,   0.00,   0.00,   0.00,  0.00000,  0.00000,  0.00000,  0.00000,1,1,   0.0,   1,1.0000,   0,1.0000,   0,1.0000,   0,1.0000
  409,   411,'1 ', 0.01030, 0.07090,0.46000,   0.00,   0.00,   0.00,  0.00000,  0.00000,  0.00000,  0.00000,1,1,   0.0,   1,1.0000,   0,1.0000,   0,1.0000,   0,1.0000
  409,   411,'2 ', 0.01030, 0.07090,0.46000,   0.00,   0.00,   0.00,  0.00000,  0.00000,  0.00000,  0.00000,1,1,   0.0,   1,1.0000,   0,1.0000,   0,1.0000,   0,1.0000
  410,   411,'1 ', 0.00430, 0.05320,0.42700,   0.00,   0.00,   0.00,  0.00000,  0.00000,  0.00000,  0.00000,1,1,   0.0,   1,1.0000,   0,1.0000,   0,1.0000,   0,1.0000
  410,   412,'1 ', 0.00430, 0.05320,0.42700,   0.00,   0.00,   0.00,  0.00000,  0.00000,  0.00000,  0.00000,1,1,   0.0,   1,1.0000,   0,1.0000,   0,1.0000,   0,1.0000
  410,   412,'2 ', 0.00430, 0.05320,0.42700,   0.00,   0.00,   0.00,  0.00000,  0.00000,  0.00000,  0.00000,1,1,   0.0,   1,1.0000,   0,1.0000,   0,1.0000,   0,1.0000
  410,   412,'3 ', 0.00430, 0.05320,0.42700,   0.00,   0.00,   0.00,  0.00000,  0.00000,  0.00000,  0.00000,1,1,   0.0,   1,1.0000,   0,1.0000,   0,1.0000,   0,1.0000
  410,   412,'4 ', 0.00430, 0.05320,0.42700,   0.00,   0.00,   0.00,  0.00000,  0.00000,  0.00000,  0.00000,1,1,   0.0,   1,1.0000,   0,1.0000,   0,1.0000,   0,1.0000
  410,   413,'1 ', 0.00400, 0.04940,0.40000,   0.00,   0.00,   0.00,  0.00000,  0.00000,  0.00000,  0.00000,1,1,   0.0,   1,1.0000,   0,1.0000,   0,1.0000,   0,1.0000
  410,   413,'2 ', 0.00400, 0.04940,0.40000,   0.00,   0.00,   0.00,  0.00000,  0.00000,  0.00000,  0.00000,1,1,   0.0,   1,1.0000,   0,1.0000,   0,1.0000,   0,1.0000
  411,   412,'1 ', 0.00120, 0.01520,0.12200,   0.00,   0.00,   0.00,  0.00000,  0.00000,  0.00000,  0.00000,1,1,   0.0,   1,1.0000,   0,1.0000,   0,1.0000,   0,1.0000
  411,   412,'2 ', 0.00120, 0.01520,0.12200,   0.00,   0.00,   0.00,  0.00000,  0.00000,  0.00000,  0.00000,1,1,   0.0,   1,1.0000,   0,1.0000,   0,1.0000,   0,1.0000
  414,   415,'1 ', 0.00200, 0.02500,0.39000,   0.00,   0.00,   0.00,  0.00000,  0.00000,  0.00000,  0.00000,1,1,   0.0,   1,1.0000,   0,1.0000,   0,1.0000,   0,1.0000
  414,   415,'2 ', 0.00200, 0.02500,0.39000,   0.00,   0.00,   0.00,  0.00000,  0.00000,  0.00000,  0.00000,1,1,   0.0,   1,1.0000,   0,1.0000,   0,1.0000,   0,1.0000
  415,   416,'1 ', 0.00370, 0.04600,0.73000,   0.00,   0.00,   0.00,  0.00000,  0.00000,  0.00000,  0.00000,1,1,   0.0,   1,1.0000,   0,1.0000,   0,1.0000,   0,1.0000
  415,   416,'2 ', 0.00370, 0.04600,0.73000,   0.00,   0.00,   0.00,  0.00000,  0.00000,  0.00000,  0.00000,1,1,   0.0,   1,1.0000,   0,1.0000,   0,1.0000,   0,1.0000
  504,   507,'1 ', 0.02300, 0.15000,0.56000,   0.00,   0.00,   0.00,  0.00000,  0.00000,  0.00000,  0.00000,1,1,   0.0,   1,1.0000,   0,1.0000,   0,1.0000,   0,1.0000
  504,   507,'2 ', 0.02300, 0.15000,0.56000,   0.00,   0.00,   0.00,  0.00000,  0.00000,  0.00000,  0.00000,1,1,   0.0,   1,1.0000,   0,1.0000,   0,1.0000,   0,1.0000
  504,   508,'1 ', 0.02600, 0.01900,0.87000,   0.00,   0.00,   0.00,  0.00000,  0.00000,  0.00000,  0.00000,1,1,   0.0,   1,1.0000,   0,1.0000,   0,1.0000,   0,1.0000
  504,   508,'2 ', 0.02600, 0.01900,0.87000,   0.00,   0.00,   0.00,  0.00000,  0.00000,  0.00000,  0.00000,1,1,   0.0,   1,1.0000,   0,1.0000,   0,1.0000,   0,1.0000
  505,   507,'1 ', 0.00160, 0.01700,0.03000,   0.00,   0.00,   0.00,  0.00000,  0.00000,  0.00000,  0.00000,1,1,   0.0,   1,1.0000,   0,1.0000,   0,1.0000,   0,1.0000
  505,   507,'2 ', 0.00160, 0.01700,0.03000,   0.00,   0.00,   0.00,  0.00000,  0.00000,  0.00000,  0.00000,1,1,   0.0,   1,1.0000,   0,1.0000,   0,1.0000,   0,1.0000
  505,   508,'1 ', 0.00250, 0.02800,0.17000,   0.00,   0.00,   0.00,  0.00000,  0.00000,  0.00000,  0.00000,1,1,   0.0,   1,1.0000,   0,1.0000,   0,1.0000,   0,1.0000
  506,   507,'1 ', 0.00160, 0.01700,0.03000,   0.00,   0.00,   0.00,  0.00000,  0.00000,  0.00000,  0.00000,1,1,   0.0,   1,1.0000,   0,1.0000,   0,1.0000,   0,1.0000
  506,   507,'2 ', 0.00160, 0.01700,0.03000,   0.00,   0.00,   0.00,  0.00000,  0.00000,  0.00000,  0.00000,1,1,   0.0,   1,1.0000,   0,1.0000,   0,1.0000,   0,1.0000
  506,   508,'1 ', 0.00300, 0.02800,0.14000,   0.00,   0.00,   0.00,  0.00000,  0.00000,  0.00000,  0.00000,1,1,   0.0,   1,1.0000,   0,1.0000,   0,1.0000,   0,1.0000
  507,   508,'1 ', 0.00200, 0.01900,0.09000,   0.00,   0.00,   0.00,  0.00000,  0.00000,  0.00000,  0.00000,1,1,   0.0,   1,1.0000,   0,1.0000,   0,1.0000,   0,1.0000
  507,   509,'1 ', 0.09000, 0.66000,0.30000,   0.00,   0.00,   0.00,  0.00000,  0.00000,  0.00000,  0.00000,1,1,   0.0,   1,1.0000,   0,1.0000,   0,1.0000,   0,1.0000
  507,   509,'2 ', 0.09000, 0.66000,0.30000,   0.00,   0.00,   0.00,  0.00000,  0.00000,  0.00000,  0.00000,1,1,   0.0,   1,1.0000,   0,1.0000,   0,1.0000,   0,1.0000
  507,   509,'3 ', 0.09000, 0.66000,0.30000,   0.00,   0.00,   0.00,  0.00000,  0.00000,  0.00000,  0.00000,1,1,   0.0,   1,1.0000,   0,1.0000,   0,1.0000,   0,1.0000
  507,   509,'4 ', 0.09000, 0.66000,0.30000,   0.00,   0.00,   0.00,  0.00000,  0.00000,  0.00000,  0.00000,1,1,   0.0,   1,1.0000,   0,1.0000,   0,1.0000,   0,1.0000
  507,   509,'5 ', 0.09000, 0.66000,0.30000,   0.00,   0.00,   0.00,  0.00000,  0.00000,  0.00000,  0.00000,1,1,   0.0,   1,1.0000,   0,1.0000,   0,1.0000,   0,1.0000
  507,   509,'6 ', 0.09000, 0.66000,0.30000,   0.00,   0.00,   0.00,  0.00000,  0.00000,  0.00000,  0.00000,1,1,   0.0,   1,1.0000,   0,1.0000,   0,1.0000,   0,1.0000
0 / END OF BRANCH DATA, BEGIN TRANSFORMER DATA
  101,  102,    0,'1 ',1,1,1,  0.00000,  0.00000,2,'            ',1,   1,1.0000,   0,1.0000,   0,1.0000,   0,1.0000
 0.00000, 0.01200, 100.00
0.94790, 15.000,   0.000,   0.00,   0.00,   0.00,0,     0, 1.10000, 0.90000, 1.10000, 0.90000,999, 0, 0.00000, 0.00000
1.00000,330.000
  201,  206,    0,'1 ',1,1,1,  0.00000,  0.00000,2,'            ',1,   1,1.0000,   0,1.0000,   0,1.0000,   0,1.0000
 0.00000, 0.00480, 100.00
0.94790, 20.000,   0.000,   0.00,   0.00,   0.00,0,     0, 1.10000, 0.90000, 1.10000, 0.90000,999, 0, 0.00000, 0.00000
1.00000,330.000
  202,  209,    0,'1 ',1,1,1,  0.00000,  0.00000,2,'            ',1,   1,1.0000,   0,1.0000,   0,1.0000,   0,1.0000
 0.00000, 0.00720, 100.00
0.94790, 20.000,   0.000,   0.00,   0.00,   0.00,0,     0, 1.10000, 0.90000, 1.10000, 0.90000,999, 0, 0.00000, 0.00000
1.00000,330.000
  203,  208,    0,'1 ',1,1,1,  0.00000,  0.00000,2,'            ',1,   1,1.0000,   0,1.0000,   0,1.0000,   0,1.0000
 0.00000, 0.01020, 100.00
0.94790, 20.000,   0.000,   0.00,   0.00,   0.00,0,     0, 1.10000, 0.90000, 1.10000, 0.90000,999, 0, 0.00000, 0.00000
1.00000,330.000
  204,  215,    0,'1 ',1,1,1,  0.00000,  0.00000,2,'            ',1,   1,1.0000,   0,1.0000,   0,1.0000,   0,1.0000
 0.00000, 0.00600, 100.00
0.94790, 20.000,   0.000,   0.00,   0.00,   0.00,0,     0, 1.10000, 0.90000, 1.10000, 0.90000,999, 0, 0.00000, 0.00000
1.00000,330.000
  209,  210,    0,'1 ',1,1,1,  0.00000,  0.00000,2,'            ',1,   1,1.0000,   0,1.0000,   0,1.0000,   0,1.0000
 0.00000, 0.02720, 100.00
0.99010,330.000,   0.000,   0.00,   0.00,   0.00,0,     0, 1.10000, 0.90000, 1.10000, 0.90000,999, 0, 0.00000, 0.00000
1.00000,500.000
  209,  210,    0,'2 ',1,1,1,  0.00000,  0.00000,2,'            ',1,   1,1.0000,   0,1.0000,   0,1.0000,   0,1.0000
 0.00000, 0.02720, 100.00
0.99010,330.000,   0.000,   0.00,   0.00,   0.00,0,     0, 1.10000, 0.90000, 1.10000, 0.90000,999, 0, 0.00000, 0.00000
1.00000,500.000
  209,  210,    0,'3 ',1,1,1,  0.00000,  0.00000,2,'            ',1,   1,1.0000,   0,1.0000,   0,1.0000,   0,1.0000
 0.00000, 0.02720, 100.00
0.99010,330.000,   0.000,   0.00,   0.00,   0.00,0,     0, 1.10000, 0.90000, 1.10000, 0.90000,999, 0, 0.00000, 0.00000
1.00000,500.000
  209,  210,    0,'4 ',1,1,1,  0.00000,  0.00000,2,'            ',1,   1,1.0000,   0,1.0000,   0,1.0000,   0,1.0000
 0.00000, 0.02720, 100.00
0.99010,330.000,   0.000,   0.00,   0.00,   0.00,0,     0, 1.10000, 0.90000, 1.10000, 0.90000,999, 0, 0.00000, 0.00000
1.00000,500.000
  213,  214,    0,'1 ',1,1,1,  0.00000,  0.00000,2,'            ',1,   1,1.0000,   0,1.0000,   0,1.0000,   0,1.0000
 0.00000, 0.02720, 100.00
1.00000,500.000,   0.000,   0.00,   0.00,   0.00,0,     0, 1.10000, 0.90000, 1.10000, 0.90000,999, 0, 0.00000, 0.00000
1.00000,330.000
  213,  214,    0,'2 ',1,1,1,  0.00000,  0.00000,2,'            ',1,   1,1.0000,   0,1.0000,   0,1.0000,   0,1.0000
 0.00000, 0.02720, 100.00
1.00000,500.000,   0.000,   0.00,   0.00,   0.00,0,     0, 1.10000, 0.90000, 1.10000, 0.90000,999, 0, 0.00000, 0.00000
1.00000,330.000
  213,  214,    0,'3 ',1,1,1,  0.00000,  0.00000,2,'            ',1,   1,1.0000,   0,1.0000,   0,1.0000,   0,1.0000
 0.00000, 0.02720, 100.00
1.00000,500.000,   0.000,   0.00,   0.00,   0.00,0,     0, 1.10000, 0.90000, 1.10000, 0.90000,999, 0, 0.00000, 0.00000
1.00000,330.000
  213,  214,    0,'4 ',1,1,1,  0.00000,  0.00000,2,'            ',1,   1,1.0000,   0,1.0000,   0,1.0000,   0,1.0000
 0.00000, 0.02720, 100.00
1.00000,500.000,   0.000,   0.00,   0.00,   0.00,0,     0, 1.10000, 0.90000, 1.10000, 0.90000,999, 0, 0.00000, 0.00000
1.00000,330.000
  301,  303,    0,'1 ',1,1,1,  0.00000,  0.00000,2,'            ',1,   1,1.0000,   0,1.0000,   0,1.0000,   0,1.0000
 0.00000, 0.00300, 100.00
0.93460, 20.000,   0.000,   0.00,   0.00,   0.00,0,     0, 1.10000, 0.90000, 1.10000, 0.90000,999, 0, 0.00000, 0.00000
1.00000,500.000
  302,  312,    0,'1 ',1,1,1,  0.00000,  0.00000,2,'            ',1,   1,1.0000,   0,1.0000,   0,1.0000,   0,1.0000
 0.00000, 0.00845, 100.00
0.95240, 20.000,   0.000,   0.00,   0.00,   0.00,0,     0, 1.10000, 0.90000, 1.10000, 0.90000,999, 0, 0.00000, 0.00000
1.00000,220.000
  304,  313,    0,'1 ',1,1,1,  0.00000,  0.00000,2,'            ',1,   1,1.0000,   0,1.0000,   0,1.0000,   0,1.0000
 0.00000, 0.03200, 100.00
0.96150,500.000,   0.000,   0.00,   0.00,   0.00,0,     0, 1.10000, 0.90000, 1.10000, 0.90000,999, 0, 0.00000, 0.00000
1.00000,220.000
  304,  313,    0,'2 ',1,1,1,  0.00000,  0.00000,2,'            ',1,   1,1.0000,   0,1.0000,   0,1.0000,   0,1.0000
 0.00000, 0.03200, 100.00
0.96150,500.000,   0.000,   0.00,   0.00,   0.00,0,     0, 1.10000, 0.90000, 1.10000, 0.90000,999, 0, 0.00000, 0.00000
1.00000,220.000
  305,  311,    0,'1 ',1,1,1,  0.00000,  0.00000,2,'            ',1,   1,1.0000,   0,1.0000,   0,1.0000,   0,1.0000
 0.00000, 0.03600, 100.00
1.00000,500.000,   0.000,   0.00,   0.00,   0.00,0,     0, 1.10000, 0.90000, 1.10000, 0.90000,999, 0, 0.00000, 0.00000
1.00000,330.000
  305,  311,    0,'2 ',1,1,1,  0.00000,  0.00000,2,'            ',1,   1,1.0000,   0,1.0000,   0,1.0000,   0,1.0000
 0.00000, 0.03600, 100.00
1.00000,500.000,   0.000,   0.00,   0.00,   0.00,0,     0, 1.10000, 0.90000, 1.10000, 0.90000,999, 0, 0.00000, 0.00000
1.00000,330.000
  305,  311,    0,'3 ',1,1,1,  0.00000,  0.00000,2,'            ',1,   1,1.0000,   0,1.0000,   0,1.0000,   0,1.0000
 0.00000, 0.03600, 100.00
1.00000,500.000,   0.000,   0.00,   0.00,   0.00,0,     0, 1.10000, 0.90000, 1.10000, 0.90000,999, 0, 0.00000, 0.00000
1.00000,330.000
  305,  314,    0,'1 ',1,1,1,  0.00000,  0.00000,2,'            ',1,   1,1.0000,   0,1.0000,   0,1.0000,   0,1.0000
 0.00000, 0.02400, 100.00
1.00000,500.000,   0.000,   0.00,   0.00,   0.00,0,     0, 1.10000, 0.90000, 1.10000, 0.90000,999, 0, 0.00000, 0.00000
1.00000,220.000
  305,  314,    0,'2 ',1,1,1,  0.00000,  0.00000,2,'            ',1,   1,1.0000,   0,1.0000,   0,1.0000,   0,1.0000
 0.00000, 0.02400, 100.00
1.00000,500.000,   0.000,   0.00,   0.00,   0.00,0,     0, 1.10000, 0.90000, 1.10000, 0.90000,999, 0, 0.00000, 0.00000
1.00000,220.000
  308,  315,    0,'1 ',1,1,1,  0.00000,  0.00000,2,'            ',1,   1,1.0000,   0,1.0000,   0,1.0000,   0,1.0000
 0.00000, 0.02700, 100.00
0.96000,500.000,   0.000,   0.00,   0.00,   0.00,0,     0, 1.10000, 0.90000, 1.10000, 0.90000,999, 0, 0.00000, 0.00000
1.00000,275.000
  308,  315,    0,'2 ',1,1,1,  0.00000,  0.00000,2,'            ',1,   1,1.0000,   0,1.0000,   0,1.0000,   0,1.0000
 0.00000, 0.02700, 100.00
0.96000,500.000,   0.000,   0.00,   0.00,   0.00,0,     0, 1.10000, 0.90000, 1.10000, 0.90000,999, 0, 0.00000, 0.00000
1.00000,275.000
  401,  410,    0,'1 ',1,1,1,  0.00000,  0.00000,2,'            ',1,   1,1.0000,   0,1.0000,   0,1.0000,   0,1.0000
 0.00000, 0.00845, 100.00
0.93900, 20.000,   0.000,   0.00,   0.00,   0.00,0,     0, 1.10000, 0.90000, 1.10000, 0.90000,999, 0, 0.00000, 0.00000
1.00000,275.000
  402,  408,    0,'1 ',1,1,1,  0.00000,  0.00000,2,'            ',1,   1,1.0000,   0,1.0000,   0,1.0000,   0,1.0000
 0.00000, 0.01700, 100.00
0.95240, 20.000,   0.000,   0.00,   0.00,   0.00,0,     0, 1.10000, 0.90000, 1.10000, 0.90000,999, 0, 0.00000, 0.00000
1.00000,275.000
  403,  407,    0,'1 ',1,1,1,  0.00000,  0.00000,2,'            ',1,   1,1.0000,   0,1.0000,   0,1.0000,   0,1.0000
 0.00000, 0.00845, 100.00
0.95240, 20.000,   0.000,   0.00,   0.00,   0.00,0,     0, 1.10000, 0.90000, 1.10000, 0.90000,999, 0, 0.00000, 0.00000
1.00000,275.000
  404,  405,    0,'1 ',1,1,1,  0.00000,  0.00000,2,'            ',1,   1,1.0000,   0,1.0000,   0,1.0000,   0,1.0000
 0.00000, 0.00850, 100.00
0.95240, 20.000,   0.000,   0.00,   0.00,   0.00,0,     0, 1.10000, 0.90000, 1.10000, 0.90000,999, 0, 0.00000, 0.00000
1.00000,275.000
  413,  414,    0,'1 ',1,1,1,  0.00000,  0.00000,2,'            ',1,   1,1.0000,   0,1.0000,   0,1.0000,   0,1.0000
 0.00000, 0.00800, 100.00
1.00000,275.000,   0.000,   0.00,   0.00,   0.00,0,     0, 1.10000, 0.90000, 1.10000, 0.90000,999, 0, 0.00000, 0.00000
1.00000,330.000
  413,  414,    0,'2 ',1,1,1,  0.00000,  0.00000,2,'            ',1,   1,1.0000,   0,1.0000,   0,1.0000,   0,1.0000
 0.00000, 0.00800, 100.00
1.00000,275.000,   0.000,   0.00,   0.00,   0.00,0,     0, 1.10000, 0.90000, 1.10000, 0.90000,999, 0, 0.00000, 0.00000
1.00000,330.000
  413,  414,    0,'3 ',1,1,1,  0.00000,  0.00000,2,'            ',1,   1,1.0000,   0,1.0000,   0,1.0000,   0,1.0000
 0.00000, 0.00800, 100.00
1.00000,275.000,   0.000,   0.00,   0.00,   0.00,0,     0, 1.10000, 0.90000, 1.10000, 0.90000,999, 0, 0.00000, 0.00000
1.00000,330.000
  501,  504,    0,'1 ',1,1,1,  0.00000,  0.00000,2,'            ',1,   1,1.0000,   0,1.0000,   0,1.0000,   0,1.0000
 0.00000, 0.02550, 100.00
0.95240, 20.000,   0.000,   0.00,   0.00,   0.00,0,     0, 1.10000, 0.90000, 1.10000, 0.90000,999, 0, 0.00000, 0.00000
1.00000,275.000
  502,  505,    0,'1 ',1,1,1,  0.00000,  0.00000,2,'            ',1,   1,1.0000,   0,1.0000,   0,1.0000,   0,1.0000
 0.00000, 0.01600, 100.00
0.93000, 15.000,   0.000,   0.00,   0.00,   0.00,0,     0, 1.10000, 0.90000, 1.10000, 0.90000,999, 0, 0.00000, 0.00000
1.00000,275.000
  503,  506,    0,'1 ',1,1,1,  0.00000,  0.00000,2,'            ',1,   1,1.0000,   0,1.0000,   0,1.0000,   0,1.0000
 0.00000, 0.02000, 100.00
0.93000, 15.000,   0.000,   0.00,   0.00,   0.00,0,     0, 1.10000, 0.90000, 1.10000, 0.90000,999, 0, 0.00000, 0.00000
1.00000,275.000
0 / END OF TRANSFORMER DATA, BEGIN AREA DATA
   1,    0,     0.000,     1.000,'1           '
   2,    0,     0.000,     1.000,'2           '
   3,    0,     0.000,     1.000,'3           '
   4,    0,     0.000,     1.000,'4           '
   5,    0,     0.000,     1.000,'5           '
0 / END OF AREA DATA, BEGIN TWO-TERMINAL DC DATA
0 / END OF TWO-TERMINAL DC DATA, BEGIN VOLTAGE SOURCE CONVERTER DATA
0 / END OF VOLTAGE SOURCE CONVERTER DATA, BEGIN IMPEDANCE CORRECTION DATA
0 / END OF IMPEDANCE CORRECTION DATA, BEGIN MULTI-TERMINAL DC DATA
0 / END OF MULTI-TERMINAL DC DATA, BEGIN MULTI-SECTION LINE DATA
0 / END OF MULTI-SECTION LINE DATA, BEGIN ZONE DATA
   1,'1       '
0 / END OF ZONE DATA, BEGIN INTER-AREA TRANSFER DATA
0 / END OF INTER-AREA TRANSFER DATA, BEGIN OWNER DATA
    1,'1'
0 / END OF OWNER DATA, BEGIN FACTS CONTROL DEVICE DATA
0 / END OF FACTS CONTROL DEVICE DATA, BEGIN SWITCHED SHUNT DATA
0 /END OF SWITCHED SHUNT DATA, BEGIN GNE DEVICE DATA
0 /END OF GNE DEVICE DATA
Q
